! b3lyp sto-3g opt freq largeprint printmos
%base
          "orca"
%pal
          nprocs 2
end
%maxcore
          3000
%tddft
          nroots 10
end
%freq
          temp 293
end
* xyz 0 1
O      0.00000    0.00000    0.00000
H      0.00000    0.00000    0.95720
H      0.92390    0.00000   -0.23990
*